
     RDKit          3D

 48 51  0  0  0  0  0  0  0  0999 V2000
    6.3538   -2.3850    0.4896 C   0  0  0  0  0  0  0  0  0  0  0  0
    7.3423   -1.6135    0.9954 N   0  0  0  0  0  0  0  0  0  0  0  0
    7.0938   -0.2959    1.1715 C   0  0  0  0  0  0  0  0  0  0  0  0
    5.8181    0.1992    0.8514 C   0  0  0  0  0  0  0  0  0  0  0  0
    4.9039   -0.7143    0.3513 C   0  0  0  0  0  0  0  0  0  0  0  0
    5.1059   -2.0241    0.1345 N   0  0  0  0  0  0  0  0  0  0  0  0
    3.7635    0.0109    0.1407 N   0  0  0  0  0  0  0  0  0  0  0  0
    4.0289    1.3079    0.4998 C   0  0  0  0  0  0  0  0  0  0  0  0
    5.2577    1.4572    0.9518 N   0  0  0  0  0  0  0  0  0  0  0  0
    2.5031   -0.5122   -0.3450 C   0  0  1  0  0  0  0  0  0  0  0  0
    1.4974   -0.7844    0.7684 C   0  0  1  0  0  0  0  0  0  0  0  0
    0.1839   -0.7473    0.0079 C   0  0  1  0  0  0  0  0  0  0  0  0
    0.4582    0.2025   -1.1669 C   0  0  2  0  0  0  0  0  0  0  0  0
    1.8790    0.4855   -1.1786 O   0  0  0  0  0  0  0  0  0  0  0  0
   -0.3298    1.5110   -1.0765 C   0  0  0  0  0  0  0  0  0  0  0  0
   -1.7191    1.3137   -0.8661 O   0  0  0  0  0  0  0  0  0  0  0  0
   -2.4847    0.3579   -1.9328 P   0  0  0  0  0  5  0  0  0  0  0  0
   -2.3967    0.9428   -3.3137 O   0  0  0  0  0  0  0  0  0  0  0  0
   -2.2114   -1.0878   -1.5857 O   0  0  0  0  0  1  0  0  0  0  0  0
   -4.1217    0.6080   -1.4536 N   0  0  0  0  0  0  0  0  0  0  0  0
   -4.8260    0.0006   -0.4206 C   0  0  0  0  0  0  0  0  0  0  0  0
   -6.0801    0.5644   -0.4092 C   0  0  0  0  0  0  0  0  0  0  0  0
   -7.2243    0.2730    0.4922 C   0  0  0  0  0  0  0  0  0  0  0  0
   -7.2771    1.2206    1.6799 C   0  0  0  0  0  0  0  0  0  0  0  0
   -6.1897    1.5078   -1.3999 N   0  0  0  0  0  0  0  0  0  0  0  0
   -5.0207    1.5024   -2.0056 C   0  0  0  0  0  0  0  0  0  0  0  0
   -0.0992   -2.0734   -0.4733 O   0  0  0  0  0  0  0  0  0  0  0  0
    1.6779   -2.0339    1.4309 O   0  0  0  0  0  0  0  0  0  0  0  0
    8.1097    0.5004    1.6925 N   0  0  0  0  0  0  0  0  0  0  0  0
    6.5980   -3.4345    0.3534 H   0  0  0  0  0  0  0  0  0  0  0  0
    3.2900    2.0948    0.4115 H   0  0  0  0  0  0  0  0  0  0  0  0
    2.7096   -1.4015   -0.9525 H   0  0  0  0  0  0  0  0  0  0  0  0
    1.5164    0.0172    1.5163 H   0  0  0  0  0  0  0  0  0  0  0  0
   -0.6479   -0.4561    0.6564 H   0  0  0  0  0  0  0  0  0  0  0  0
    0.2352   -0.2907   -2.1200 H   0  0  0  0  0  0  0  0  0  0  0  0
   -0.1790    2.1102   -1.9816 H   0  0  0  0  0  0  0  0  0  0  0  0
    0.0503    2.1173   -0.2464 H   0  0  0  0  0  0  0  0  0  0  0  0
   -4.3459   -0.7630    0.1734 H   0  0  0  0  0  0  0  0  0  0  0  0
   -7.1568   -0.7596    0.8545 H   0  0  0  0  0  0  0  0  0  0  0  0
   -8.1601    0.3484   -0.0739 H   0  0  0  0  0  0  0  0  0  0  0  0
   -8.1323    0.9810    2.3196 H   0  0  0  0  0  0  0  0  0  0  0  0
   -7.3779    2.2608    1.3516 H   0  0  0  0  0  0  0  0  0  0  0  0
   -6.3673    1.1470    2.2855 H   0  0  0  0  0  0  0  0  0  0  0  0
   -4.7281    2.1106   -2.8509 H   0  0  0  0  0  0  0  0  0  0  0  0
   -0.9624   -1.9529   -0.9712 H   0  0  0  0  0  0  0  0  0  0  0  0
    1.1392   -2.6668    0.9036 H   0  0  0  0  0  0  0  0  0  0  0  0
    7.7532    1.3516    2.1138 H   0  0  0  0  0  0  0  0  0  0  0  0
    8.7693   -0.0487    2.2266 H   0  0  0  0  0  0  0  0  0  0  0  0
  1  2  2  0
  2  3  1  0
  3  4  2  0
  4  5  1  0
  5  6  2  0
  5  7  1  0
  7  8  1  0
  8  9  2  0
  7 10  1  0
 10 11  1  0
 11 12  1  0
 12 13  1  0
 13 14  1  0
 13 15  1  0
 15 16  1  0
 16 17  1  0
 17 18  2  0
 17 19  1  0
 17 20  1  0
 20 21  1  0
 21 22  2  0
 22 23  1  0
 23 24  1  0
 22 25  1  0
 25 26  2  0
 12 27  1  0
 11 28  1  0
  3 29  1  0
  6  1  1  0
 26 20  1  0
  9  4  1  0
 14 10  1  0
  1 30  1  0
  8 31  1  0
 10 32  1  6
 11 33  1  1
 12 34  1  1
 13 35  1  6
 15 36  1  0
 15 37  1  0
 21 38  1  0
 23 39  1  0
 23 40  1  0
 24 41  1  0
 24 42  1  0
 24 43  1  0
 26 44  1  0
 27 45  1  0
 28 46  1  0
 29 47  1  0
 29 48  1  0
M  CHG  1  19  -1
M  END
$$$$
